! This file was written by the model and records the non-default parameters used at run-time.

! === module MOM ===
CALC_RHO_FOR_SEA_LEVEL = True   !   [Boolean] default = False
                                ! If true, the in-situ density is used to calculate the effective sea level that
                                ! is returned to the coupler. If false, the Boussinesq parameter RHO_0 is used.
USE_REGRIDDING = True           !   [Boolean] default = False
                                ! If True, use the ALE algorithm (regridding/remapping). If False, use the
                                ! layered isopycnal algorithm.
REMAP_AUXILIARY_VARS = True     !   [Boolean] default = False
                                ! If true, apply ALE remapping to all of the auxiliary 3-dimensional variables
                                ! that are needed to reproduce across restarts, similarly to what is already
                                ! being done with the primary state variables.  The default should be changed to
                                ! true.
DT = 300.0                      !   [s]
                                ! The (baroclinic) dynamics time step.  The time-step that is actually used will
                                ! be an integer fraction of the forcing time-step (DT_FORCING in ocean-only mode
                                ! or the coupling timestep in coupled mode.)
DT_THERM = 1200.0               !   [s] default = 300.0
                                ! The thermodynamic time step. Ideally DT_THERM should be an integer multiple of
                                ! DT and of DT_TRACER_ADVECT and less than the forcing or coupling time-step.
                                ! However, if THERMO_SPANS_COUPLING is true, DT_THERM can be an integer multiple
                                ! of the coupling timestep. By default DT_THERM is set to DT.
THICKNESSDIFFUSE = True         !   [Boolean] default = False
                                ! If true, isopycnal surfaces are diffused with a Laplacian coefficient of KHTH.
FRAZIL = True                   !   [Boolean] default = False
                                ! If true, water freezes if it gets too cold, and the accumulated heat deficit
                                ! is returned in the surface state.  FRAZIL is only used if
                                ! ENABLE_THERMODYNAMICS is true.
DO_GEOTHERMAL = True            !   [Boolean] default = False
                                ! If true, apply geothermal heating.
BOUND_SALINITY = True           !   [Boolean] default = False
                                ! If true, limit salinity to being positive. (The sea-ice model may ask for more
                                ! salt than is available and drive the salinity negative otherwise.)
C_P = 3992.0                    !   [J kg-1 K-1] default = 3991.86795711963
                                ! The heat capacity of sea water, approximated as a constant. This is only used
                                ! if ENABLE_THERMODYNAMICS is true. The default value is from the TEOS-10
                                ! definition of conservative temperature.
SAVE_INITIAL_CONDS = True       !   [Boolean] default = False
                                ! If true, write the initial conditions to a file given by IC_OUTPUT_FILE.

! === module MOM_domains ===
REENTRANT_X = False             !   [Boolean] default = True
                                ! If true, the domain is zonally reentrant.
NIGLOBAL = 430                  !
                                ! The total number of thickness grid points in the x-direction in the physical
                                ! domain. With STATIC_MEMORY_ this is set in MOM_memory.h at compile time.
NJGLOBAL = 396                  !
                                ! The total number of thickness grid points in the y-direction in the physical
                                ! domain. With STATIC_MEMORY_ this is set in MOM_memory.h at compile time.

! === module MOM_fixed_initialization ===
INPUTDIR = "INPUT"              ! default = "."
                                ! The directory in which input files are found.

! === module MOM_grid_init ===
GRID_CONFIG = "mosaic"          !
                                ! A character string that determines the method for defining the horizontal
                                ! grid.  Current options are:
                                !     mosaic - read the grid from a mosaic (supergrid)
                                !              file set by GRID_FILE.
                                !     cartesian - use a (flat) Cartesian grid.
                                !     spherical - use a simple spherical grid.
                                !     mercator - use a Mercator spherical grid.
GRID_FILE = "ocean_hgrid.nc"    !
                                ! Name of the file from which to read horizontal grid data.
TOPO_CONFIG = "file"            !
                                ! This specifies how bathymetry is specified:
                                !     file - read bathymetric information from the file
                                !       specified by (TOPO_FILE).
                                !     flat - flat bottom set to MAXIMUM_DEPTH.
                                !     bowl - an analytically specified bowl-shaped basin
                                !       ranging between MAXIMUM_DEPTH and MINIMUM_DEPTH.
                                !     spoon - a similar shape to 'bowl', but with an vertical
                                !       wall at the southern face.
                                !     halfpipe - a zonally uniform channel with a half-sine
                                !       profile in the meridional direction.
                                !     bbuilder - build topography from list of functions.
                                !     benchmark - use the benchmark test case topography.
                                !     Neverworld - use the Neverworld test case topography.
                                !     DOME - use a slope and channel configuration for the
                                !       DOME sill-overflow test case.
                                !     ISOMIP - use a slope and channel configuration for the
                                !       ISOMIP test case.
                                !     DOME2D - use a shelf and slope configuration for the
                                !       DOME2D gravity current/overflow test case.
                                !     Kelvin - flat but with rotated land mask.
                                !     seamount - Gaussian bump for spontaneous motion test case.
                                !     dumbbell - Sloshing channel with reservoirs on both ends.
                                !     shelfwave - exponential slope for shelfwave test case.
                                !     Phillips - ACC-like idealized topography used in the Phillips config.
                                !     dense - Denmark Strait-like dense water formation and overflow.
                                !     USER - call a user modified routine.
TOPO_FILE = "ocean_topog.nc"    ! default = "topog.nc"
                                ! The file from which the bathymetry is read.
MINIMUM_DEPTH = 5.0             !   [m] default = 0.0
                                ! If MASKING_DEPTH is unspecified, then anything shallower than MINIMUM_DEPTH is
                                ! assumed to be land and all fluxes are masked out. If MASKING_DEPTH is
                                ! specified, then all depths shallower than MINIMUM_DEPTH but deeper than
                                ! MASKING_DEPTH are rounded to MINIMUM_DEPTH.
MASKING_DEPTH = 0.3             !   [m] default = -9999.0
                                ! The depth below which to mask points as land points, for which all fluxes are
                                ! zeroed out. MASKING_DEPTH is ignored if it has the special default value.
MAXIMUM_DEPTH = 6500.0          !   [m]
                                ! The maximum depth of the ocean.

! === module MOM_open_boundary ===
! Controls where open boundaries are located, what kind of boundary condition to impose, and what data to apply,
! if any.
OBC_NUMBER_OF_SEGMENTS = 2      ! default = 0
                                ! The number of open boundary segments.
OBC_FREESLIP_VORTICITY = False  !   [Boolean] default = True
                                ! If true, sets the normal gradient of tangential velocity to zero in the
                                ! relative vorticity on open boundaries. This cannot be true if another
                                ! OBC_XXX_VORTICITY option is True.
OBC_COMPUTED_VORTICITY = True   !   [Boolean] default = False
                                ! If true, uses the external values of tangential velocity in the relative
                                ! vorticity on open boundaries. This cannot be true if another OBC_XXX_VORTICITY
                                ! option is True.
OBC_FREESLIP_STRAIN = False     !   [Boolean] default = True
                                ! If true, sets the normal gradient of tangential velocity to zero in the strain
                                ! use in the stress tensor on open boundaries. This cannot be true if another
                                ! OBC_XXX_STRAIN option is True.
OBC_RAMP_TIMESCALE = 3.0        !   [days] default = 1.0
                                ! If RAMP_OBCS is true, this sets the ramping timescale.
OBC_TIDE_N_CONSTITUENTS = 10    ! default = 0
                                ! Number of tidal constituents being added to the open boundary.
OBC_SEGMENT_001 = "J=0,I=0:N,FLATHER,ORLANSKI,NUDGED,ORLANSKI_TAN,NUDGED_TAN" !
                                ! Documentation needs to be dynamic?????
OBC_SEGMENT_001_VELOCITY_NUDGING_TIMESCALES = 5.0, 360.0 !   [days]
                                ! Timescales in days for nudging along a segment, for inflow, then outflow.
                                ! Setting both to zero should behave like SIMPLE obcs for the baroclinic
                                ! velocities.
OBC_SEGMENT_002 = "I=N,J=0:N,FLATHER,ORLANSKI,NUDGED,ORLANSKI_TAN,NUDGED_TAN" !
                                ! Documentation needs to be dynamic?????
OBC_SEGMENT_002_VELOCITY_NUDGING_TIMESCALES = 5.0, 360.0 !   [days]
                                ! Timescales in days for nudging along a segment, for inflow, then outflow.
                                ! Setting both to zero should behave like SIMPLE obcs for the baroclinic
                                ! velocities.
BRUSHCUTTER_MODE = True         !   [Boolean] default = False
                                ! If true, read external OBC data on the supergrid.
OBC_TIDE_CONSTITUENTS = "M2,S2,N2,K2,K1,O1,P1,Q1,MM,MF" !
                                ! Names of tidal constituents being added to the open boundaries.
TIDE_ADD_NODAL = True           !   [Boolean] default = False
                                ! If true, include 18.6 year nodal modulation in the boundary tidal forcing.
TIDE_REF_DATE = 2020, 11, 1     ! default = 0, 0, 0
                                ! Reference date to use for tidal calculations and equilibrium phase.
TIDE_NODAL_REF_DATE = 1993, 7, 2 ! default = 0, 0, 0
                                ! Fixed reference date to use for nodal modulation of boundary tides.

! === module MOM_verticalGrid ===
! Parameters providing information about the vertical grid.
NK = 75                         !   [nondim]
                                ! The number of model layers.

! === module MOM_EOS ===
DTFREEZE_DP = -7.75E-08         !   [degC Pa-1] default = 0.0
                                ! When TFREEZE_FORM=LINEAR, this is the derivative of the freezing potential
                                ! temperature with pressure.

! === module MOM_restart ===
MAX_FIELDS = 500                ! default = 100
                                ! The maximum number of restart fields that can be used.
RESTART_CHECKSUMS_REQUIRED = False !   [Boolean] default = True
                                ! If true, require the restart checksums to match and error out otherwise. Users
                                ! may want to avoid this comparison if for example the restarts are made from a
                                ! run with a different mask_table than the current run, in which case the
                                ! checksums will not match and cause crash.

! === module MOM_tracer_flow_control ===
USE_generic_tracer = True       !   [Boolean] default = False
                                ! If true and _USE_GENERIC_TRACER is defined as a preprocessor macro, use the
                                ! MOM_generic_tracer packages.

! === module register_MOM_generic_tracer ===
GENERIC_TRACER_IC_FILE = "bgc_woa_esper_ics_1993_2023-04.nc" ! default = ""
                                ! The file in which the generic tracer initial values can be found, or an empty
                                ! string for internal initialization.

! === module MOM_boundary_update ===

! === module segment_tracer_registry_init ===

! === module MOM_coord_initialization ===
COORD_CONFIG = "ALE"            ! default = "none"
                                ! This specifies how layers are to be defined:
                                !     ALE or none - used to avoid defining layers in ALE mode
                                !     file - read coordinate information from the file
                                !       specified by (COORD_FILE).
                                !     BFB - Custom coords for buoyancy-forced basin case
                                !       based on SST_S, T_BOT and DRHO_DT.
                                !     linear - linear based on interfaces not layers
                                !     layer_ref - linear based on layer densities
                                !     ts_ref - use reference temperature and salinity
                                !     ts_range - use range of temperature and salinity
                                !       (T_REF and S_REF) to determine surface density
                                !       and GINT calculate internal densities.
                                !     gprime - use reference density (RHO_0) for surface
                                !       density and GINT calculate internal densities.
                                !     ts_profile - use temperature and salinity profiles
                                !       (read from COORD_FILE) to set layer densities.
                                !     USER - call a user modified routine.
LIGHTEST_DENSITY = 1024.0       !   [kg m-3] default = 1035.0
                                ! The reference potential density used for layer 1.
REGRIDDING_COORDINATE_MODE = "Z*" ! default = "LAYER"
                                ! Coordinate mode for vertical regridding. Choose among the following
                                ! possibilities:  LAYER - Isopycnal or stacked shallow water layers
                                !  ZSTAR, Z* - stretched geopotential z*
                                !  SIGMA_SHELF_ZSTAR - stretched geopotential z* ignoring shelf
                                !  SIGMA - terrain following coordinates
                                !  RHO   - continuous isopycnal
                                !  HYCOM1 - HyCOM-like hybrid coordinate
                                !  HYBGEN - Hybrid coordinate from the Hycom hybgen code
                                !  ADAPTIVE - optimize for smooth neutral density surfaces
ALE_COORDINATE_CONFIG = "FILE:vgrid_75_2m.nc,dz" ! default = "UNIFORM"
                                ! Determines how to specify the coordinate resolution. Valid options are:
                                !  PARAM       - use the vector-parameter ALE_RESOLUTION
                                !  UNIFORM[:N] - uniformly distributed
                                !  FILE:string - read from a file. The string specifies
                                !                the filename and variable name, separated
                                !                by a comma or space, e.g. FILE:lev.nc,dz
                                !                or FILE:lev.nc,interfaces=zw
                                !  WOA09[:N]   - the WOA09 vertical grid (approximately)
                                !  WOA09INT[:N] - layers spanned by the WOA09 depths
                                !  WOA23INT[:N] - layers spanned by the WOA23 depths
                                !  FNC1:string - FNC1:dz_min,H_total,power,precision
                                !  HYBRID:string - read from a file. The string specifies
                                !                the filename and two variable names, separated
                                !                by a comma or space, for sigma-2 and dz. e.g.
                                !                HYBRID:vgrid.nc,sigma2,dz
!ALE_RESOLUTION = 4*2.0, 2*2.01, 2.02, 2.03, 2.05, 2.08, 2.11, 2.15, 2.2, 2.27, 2.34, 2.44, 2.55, 2.69, 2.85, 3.04, 3.27, 3.54, 3.85, 4.22, 4.66, 5.18, 5.79, 6.52, 7.37, 8.37, 9.55, 10.94, 12.57, 14.48, 16.72, 19.33, 22.36, 25.87, 29.91, 34.53, 39.79, 45.72, 52.37, 59.76, 67.89, 76.74, 86.29, 96.47, 107.2, 118.35, 129.81, 141.42, 153.01, 164.41, 175.47, 186.01, 195.9, 205.01, 213.27, 220.6, 226.99, 232.43, 236.96, 240.63, 243.52, 245.72, 247.33, 248.45, 249.18, 249.62, 249.86, 249.96, 249.99, 2*250.0 !   [m]
                                ! The distribution of vertical resolution for the target
                                ! grid used for Eulerian-like coordinates. For example,
                                ! in z-coordinate mode, the parameter is a list of level
                                ! thicknesses (in m). In sigma-coordinate mode, the list
                                ! is of non-dimensional fractions of the water column.
REMAPPING_SCHEME = "PPM_H4"     ! default = "PLM"
                                ! This sets the reconstruction scheme used for vertical remapping for all
                                ! variables. It can be one of the following schemes:
                                ! PCM         (1st-order accurate)
                                ! PLM         (2nd-order accurate)
                                ! PLM_HYBGEN  (2nd-order accurate)
                                ! PPM_H4      (3rd-order accurate)
                                ! PPM_IH4     (3rd-order accurate)
                                ! PPM_HYBGEN  (3rd-order accurate)
                                ! WENO_HYBGEN (3rd-order accurate)
                                ! PQM_IH4IH3  (4th-order accurate)
                                ! PQM_IH6IH5  (5th-order accurate)
REMAPPING_USE_OM4_SUBCELLS = False !   [Boolean] default = True
                                ! This selects the remapping algorithm used in OM4 that does not use the full
                                ! reconstruction for the top- and lower-most sub-layers, but instead assumes
                                ! they are always vanished (untrue) and so just uses their edge values. We
                                ! recommend setting this option to false.

! === module MOM_state_initialization ===
SPONGE = True                   !   [Boolean] default = False
                                ! If true, sponges may be applied anywhere in the domain. The exact location and
                                ! properties of those sponges are specified via SPONGE_CONFIG.
SPONGE_DAMPING_FILE = "damping_tgb_t.nc" !
                                ! The name of the file with the sponge damping rates.
SPONGE_STATE_FILE = "nudging_monthly_1993.nc" ! default = "damping_tgb_t.nc"
                                ! The name of the file with the state to damp toward.
SPONGE_PTEMP_VAR = "thetao"     ! default = "PTEMP"
                                ! The name of the potential temperature variable in SPONGE_STATE_FILE.
SPONGE_SALT_VAR = "so"          ! default = "SALT"
                                ! The name of the salinity variable in SPONGE_STATE_FILE.
INTERPOLATE_SPONGE_TIME_SPACE = True !   [Boolean] default = False
                                ! If True, perform on-the-fly regridding in lat-lon-time of sponge restoring
                                ! data.

! === module MOM_sponge ===
SPONGE_DATA_ONGRID = True       !   [Boolean] default = False
                                ! When defined, the incoming sponge data are assumed to be on the model grid
OBC_SEGMENT_001_DATA = "U=file:uv_001_1993.nc(u),V=file:uv_001_1993.nc(v),SSH=file:zos_001_1993.nc(zos),TEMP=file:thetao_001_1993.nc(thetao),SALT=file:so_001_1993.nc(so),Uamp=file:tu_001.nc(uamp),Uphase=file:tu_001.nc(uphase),Vamp=file:tu_001.nc(vamp),Vphase=file:tu_001.nc(vphase),SSHamp=file:tz_001.nc(zamp),SSHphase=file:tz_001.nc(zphase)" !
                                ! OBC segment docs
OBC_SEGMENT_002_DATA = "U=file:uv_002_1993.nc(u),V=file:uv_002_1993.nc(v),SSH=file:zos_002_1993.nc(zos),TEMP=file:thetao_002_1993.nc(thetao),SALT=file:so_002_1993.nc(so),Uamp=file:tu_002.nc(uamp),Uphase=file:tu_002.nc(uphase),Vamp=file:tu_002.nc(vamp),Vphase=file:tu_002.nc(vphase),SSHamp=file:tz_002.nc(zamp),SSHphase=file:tz_002.nc(zphase)" !
                                ! OBC segment docs

! === module MOM_diag_mediator ===
NUM_DIAG_COORDS = 2             ! default = 1
                                ! The number of diagnostic vertical coordinates to use. For each coordinate, an
                                ! entry in DIAG_COORDS must be provided.
DIAG_COORDS = "z Z ZSTAR", "rho2 RHO2 RHO" !
                                ! A list of string tuples associating diag_table modules to a coordinate
                                ! definition used for diagnostics. Each string is of the form
                                ! "MODULE_SUFFIX,PARAMETER_SUFFIX,COORDINATE_NAME".
DIAG_COORD_DEF_Z = "FILE:diag_dz.nc,dz" ! default = "WOA09"
                                ! Determines how to specify the coordinate resolution. Valid options are:
                                !  PARAM       - use the vector-parameter DIAG_COORD_RES_Z
                                !  UNIFORM[:N] - uniformly distributed
                                !  FILE:string - read from a file. The string specifies
                                !                the filename and variable name, separated
                                !                by a comma or space, e.g. FILE:lev.nc,dz
                                !                or FILE:lev.nc,interfaces=zw
                                !  WOA09[:N]   - the WOA09 vertical grid (approximately)
                                !  WOA09INT[:N] - layers spanned by the WOA09 depths
                                !  WOA23INT[:N] - layers spanned by the WOA23 depths
                                !  FNC1:string - FNC1:dz_min,H_total,power,precision
                                !  HYBRID:string - read from a file. The string specifies
                                !                the filename and two variable names, separated
                                !                by a comma or space, for sigma-2 and dz. e.g.
                                !                HYBRID:vgrid.nc,sigma2,dz
!TARGET_DENSITIES = 1024.0, 1034.0, 1044.0, 1059.0, 1081.5, 1106.5, 1131.5, 1156.5, 1194.0, 1244.0, 1294.0, 1369.0, 1469.0, 1569.0, 1669.0, 1769.0, 1869.0, 1969.0, 2069.0, 2169.0, 2269.0, 2369.0, 2469.0, 2644.0, 2894.0, 3269.0, 3769.0, 4269.0, 4769.0, 5269.0, 5769.0, 6269.0, 6769.0, 7269.0, 7769.0, 1024.0 !   [kg m^-3]
                                ! RHO target densities for interfaces

! === module MOM_lateral_mixing_coeffs ===
USE_VARIABLE_MIXING = True      !   [Boolean] default = False
                                ! If true, the variable mixing code will be called.  This allows diagnostics to
                                ! be created even if the scheme is not used.  If KHTR_SLOPE_CFF>0 or
                                ! KhTh_Slope_Cff>0, this is set to true regardless of what is in the parameter
                                ! file.
RESOLN_SCALED_KH = True         !   [Boolean] default = False
                                ! If true, the Laplacian lateral viscosity is scaled away when the first
                                ! baroclinic deformation radius is well resolved.
RESOLN_SCALED_KHTH = True       !   [Boolean] default = False
                                ! If true, the interface depth diffusivity is scaled away when the first
                                ! baroclinic deformation radius is well resolved.
RESOLN_SCALED_KHTR = True       !   [Boolean] default = False
                                ! If true, the epipycnal tracer diffusivity is scaled away when the first
                                ! baroclinic deformation radius is well resolved.
USE_STORED_SLOPES = True        !   [Boolean] default = False
                                ! If true, the isopycnal slopes are calculated once and stored for re-use. This
                                ! uses more memory but avoids calling the equation of state more times than
                                ! should be necessary.

! === module MOM_set_visc ===
CHANNEL_DRAG = True             !   [Boolean] default = False
                                ! If true, the bottom drag is exerted directly on each layer proportional to the
                                ! fraction of the bottom it overlies.
DYNAMIC_VISCOUS_ML = True       !   [Boolean] default = False
                                ! If true, use a bulk Richardson number criterion to determine the mixed layer
                                ! thickness for viscosity.
ML_OMEGA_FRAC = 0.001           !   [nondim] default = 0.0
                                ! When setting the decay scale for turbulence, use this fraction of the absolute
                                ! rotation rate blended with the local value of f, as sqrt((1-of)*f^2 +
                                ! of*4*omega^2).
HBBL = 10.0                     !   [m]
                                ! The thickness of a bottom boundary layer with a viscosity increased by
                                ! KV_EXTRA_BBL if BOTTOMDRAGLAW is not defined, or the thickness over which
                                ! near-bottom velocities are averaged for the drag law if BOTTOMDRAGLAW is
                                ! defined but LINEAR_DRAG is not.
CDRAG = 0.001                   !   [nondim] default = 0.003
                                ! CDRAG is the drag coefficient relating the magnitude of the velocity field to
                                ! the bottom stress. CDRAG is only used if BOTTOMDRAGLAW is defined.
DRAG_BG_VEL = 0.001             !   [m s-1] default = 0.0
                                ! DRAG_BG_VEL is either the assumed bottom velocity (with LINEAR_DRAG) or an
                                ! unresolved  velocity that is combined with the resolved velocity to estimate
                                ! the velocity magnitude.  DRAG_BG_VEL is only used when BOTTOMDRAGLAW is
                                ! defined.
BBL_THICK_MIN = 0.1             !   [m] default = 0.0
                                ! The minimum bottom boundary layer thickness that can be used with
                                ! BOTTOMDRAGLAW. This might be Kv/(cdrag*drag_bg_vel) to give Kv as the minimum
                                ! near-bottom viscosity.
KV = 1.0E-06                    !   [m2 s-1]
                                ! The background kinematic viscosity in the interior. The molecular value, ~1e-6
                                ! m2 s-1, may be used.

! === module MOM_thickness_diffuse ===
KHTH = 1.0E-04                  !   [m2 s-1] default = 0.0
                                ! The background horizontal thickness diffusivity.
KHTH_MAX_CFL = 0.1              !   [nondimensional] default = 0.8
                                ! The maximum value of the local diffusive CFL ratio that is permitted for the
                                ! thickness diffusivity. 1.0 is the marginally unstable value in a pure layered
                                ! model, but much smaller numbers (e.g. 0.1) seem to work better for ALE-based
                                ! models.
KH_ETA_VEL_SCALE = 0.1          !   [m s-1] default = 0.0
                                ! A velocity scale that is multiplied by the grid spacing to give a contribution
                                ! to the horizontal diffusivity of the interface heights (without considering
                                ! the layer density structure).

! === module MOM_dynamics_split_RK2 ===
BEGW = 0.5                      !   [nondim] default = 0.0
                                ! If SPLIT is true, BEGW is a number from 0 to 1 that controls the extent to
                                ! which the treatment of gravity waves is forward-backward (0) or simulated
                                ! backward Euler (1).  0 is almost always used. If SPLIT is false and USE_RK2 is
                                ! true, BEGW can be between 0 and 0.5 to damp gravity waves.

! === module MOM_continuity_PPM ===

! === module MOM_CoriolisAdv ===
CORIOLIS_EN_DIS = True          !   [Boolean] default = False
                                ! If true, two estimates of the thickness fluxes are used to estimate the
                                ! Coriolis term, and the one that dissipates energy relative to the other one is
                                ! used.
CORIOLIS_SCHEME = "ARAKAWA_LAMB81" ! default = "SADOURNY75_ENERGY"
                                ! CORIOLIS_SCHEME selects the discretization for the Coriolis terms. Valid